


 54 56  0  0  0  0  0  0  0  0999 V2000
    5.8192   -2.7906    8.2518 C   0  0  0  0  0  0  0  0  0  0  0  0
    6.9163   -3.5777    7.8182 O   0  0  0  0  0  0  0  0  0  0  0  0
    7.7650   -2.9560    6.8509 C   0  0  0  0  0  0  0  0  0  0  0  0
    7.4283   -1.4674    6.5199 C   0  0  0  0  0  0  0  0  0  0  0  0
    5.9280   -1.3459    6.1579 C   0  0  0  0  0  0  0  0  0  0  0  0
    5.7400   -1.6137    4.7894 O   0  0  0  0  0  0  0  0  0  0  0  0
    5.0316   -2.2623    7.0390 C   0  0  0  0  0  0  0  0  0  0  0  0
    4.8560   -1.2346    4.5411 H   0  0  0  0  0  0  0  0  0  0  0  0
    4.4996   -3.3916    6.2633 N   0  0  0  0  0  0  0  0  0  0  0  0
    3.0967   -3.6432    6.1042 C   0  0  0  0  0  0  0  0  0  0  0  0
    2.6377   -4.6960    5.1488 C   0  0  0  0  0  0  0  0  0  0  0  0
    2.2438   -2.9837    6.7604 O   0  0  0  0  0  0  0  0  0  0  0  0
    5.1721   -4.0272    5.7761 H   0  0  0  0  0  0  0  0  0  0  0  0
    9.2172   -3.1330    7.3275 C   0  0  0  0  0  0  0  0  0  0  0  0
    9.6332   -2.0505    8.1152 O   0  0  0  0  0  0  0  0  0  0  0  0
    9.7891   -1.2899    7.4955 H   0  0  0  0  0  0  0  0  0  0  0  0
    4.9565   -3.5999    9.0348 O   0  0  0  0  0  0  0  0  0  0  0  0
    4.3230   -3.0474   12.8532 C   0  0  0  0  0  0  0  0  0  0  0  0
    5.6497   -3.7881   13.1434 C   0  0  0  0  0  0  0  0  0  0  0  0
    5.7624   -4.0567   14.5169 O   0  0  0  0  0  0  0  0  0  0  0  0
    5.6735   -5.0024   12.4171 O   0  0  0  0  0  0  0  0  0  0  0  0
    5.9130   -4.7804   11.0307 C   0  0  0  0  0  0  0  0  0  0  0  0
    5.1463   -3.5358   10.4517 C   0  0  0  0  0  0  0  0  0  0  0  0
    3.9293   -3.1219   11.3454 C   0  0  0  0  0  0  0  0  0  0  0  0
    3.3158   -1.9288   10.9164 O   0  0  0  0  0  0  0  0  0  0  0  0
    5.1132   -4.7746   14.7330 H   0  0  0  0  0  0  0  0  0  0  0  0
    4.0247   -1.2881   10.6509 H   0  0  0  0  0  0  0  0  0  0  0  0
    5.2604    0.6584   13.8015 C   0  0  0  0  0  0  0  0  0  0  0  0
    5.2813   -0.6467   13.0696 C   0  0  0  0  0  0  0  0  0  0  0  0
    6.1275   -0.8147   12.1558 O   0  0  0  0  0  0  0  0  0  0  0  0
    4.3326   -1.6790   13.3999 N   0  0  0  0  0  0  0  0  0  0  0  0
    3.6146   -1.4622   14.1281 H   0  0  0  0  0  0  0  0  0  0  0  0
    5.6435   -6.1019   10.2910 C   0  0  0  0  0  0  0  0  0  0  0  0
    6.1747   -6.0843    8.9928 O   0  0  0  0  0  0  0  0  0  0  0  0
    5.5425   -5.5704    8.4277 H   0  0  0  0  0  0  0  0  0  0  0  0
    8.2052   -1.0211    5.4155 O   0  0  0  0  0  0  0  0  0  0  0  0
    9.0019    0.1388    5.6459 C   0  0  0  0  0  0  0  0  0  0  0  0
    8.9132    0.6384    6.9724 O   0  0  0  0  0  0  0  0  0  0  0  0
    9.9711    1.5491    7.2301 C   0  0  0  0  0  0  0  0  0  0  0  0
    9.8586    2.8157    6.3327 C   0  0  0  0  0  0  0  0  0  0  0  0
   10.9735    3.6546    6.5139 O   0  0  0  0  0  0  0  0  0  0  0  0
    9.7015    2.4454    4.8348 C   0  0  0  0  0  0  0  0  0  0  0  0
    9.2611    3.5608    4.1022 O   0  0  0  0  0  0  0  0  0  0  0  0
    8.7469    1.2488    4.6013 C   0  0  0  0  0  0  0  0  0  0  0  0
   11.7835    3.1427    6.2566 H   0  0  0  0  0  0  0  0  0  0  0  0
   10.0451    4.1574    3.9839 H   0  0  0  0  0  0  0  0  0  0  0  0
    7.3338    1.6495    4.4683 N   0  0  0  0  0  0  0  0  0  0  0  0
    6.4421    1.3829    3.3685 C   0  0  0  0  0  0  0  0  0  0  0  0
    4.9754    1.6294    3.5315 C   0  0  0  0  0  0  0  0  0  0  0  0
    6.8772    1.0188    2.2468 O   0  0  0  0  0  0  0  0  0  0  0  0
    6.9084    2.1098    5.3046 H   0  0  0  0  0  0  0  0  0  0  0  0
    9.9523    1.9129    8.7214 C   0  0  0  0  0  0  0  0  0  0  0  0
   10.4442    3.2075    8.9379 O   0  0  0  0  0  0  0  0  0  0  0  0
    9.6994    3.8319    8.7299 H   0  0  0  0  0  0  0  0  0  0  0  0
 28 29  1  0  0  0
 29 30  2  0  0  0
 29 31  1  0  0  0
 31 18  1  0  0  0
 31 32  1  0  0  0
 18 19  1  0  0  0
 18 24  1  0  0  0
 19 20  1  0  0  0
 19 21  1  0  0  0
 20 26  1  0  0  0
 21 22  1  0  0  0
 22 33  1  0  0  0
 22 23  1  0  0  0
 33 34  1  0  0  0
 34 35  1  0  0  0
 23 17  1  0  0  0
 23 24  1  0  0  0
 17  1  1  0  0  0
  1  2  1  0  0  0
  1  7  1  0  0  0
  2  3  1  0  0  0
  3 14  1  0  0  0
  3  4  1  0  0  0
 14 15  1  0  0  0
 15 16  1  0  0  0
  4 36  1  0  0  0
  4  5  1  0  0  0
 36 37  1  0  0  0
 37 38  1  0  0  0
 37 44  1  0  0  0
 38 39  1  0  0  0
 39 52  1  0  0  0
 39 40  1  0  0  0
 52 53  1  0  0  0
 53 54  1  0  0  0
 40 41  1  0  0  0
 40 42  1  0  0  0
 41 45  1  0  0  0
 42 43  1  0  0  0
 42 44  1  0  0  0
 43 46  1  0  0  0
 44 47  1  0  0  0
 47 48  1  0  0  0
 47 51  1  0  0  0
 48 49  1  0  0  0
 48 50  2  0  0  0
  5  6  1  0  0  0
  5  7  1  0  0  0
  6  8  1  0  0  0
  7  9  1  0  0  0
  9 10  1  0  0  0
  9 13  1  0  0  0
 10 11  1  0  0  0
 10 12  2  0  0  0
 24 25  1  0  0  0
 25 27  1  0  0  0
M  END
> <minimizedAffinity>
-7.61427

> <CNNscore>
0.4752500057

> <CNNaffinity>
4.3211832047

> <CNN_VS>
2.0536422729

> <CNNaffinity_variance>
1.1091506481

$$$$



 54 56  0  0  0  0  0  0  0  0999 V2000
   12.7899   -6.3899    7.3950 C   0  0  0  0  0  0  0  0  0  0  0  0
   12.6904   -5.5310    6.2710 O   0  0  0  0  0  0  0  0  0  0  0  0
   13.4309   -4.3127    6.3702 C   0  0  0  0  0  0  0  0  0  0  0  0
   14.3321   -4.1758    7.6382 C   0  0  0  0  0  0  0  0  0  0  0  0
   13.4882   -4.4618    8.9042 C   0  0  0  0  0  0  0  0  0  0  0  0
   12.8433   -3.2853    9.3285 O   0  0  0  0  0  0  0  0  0  0  0  0
   12.4680   -5.6155    8.6861 C   0  0  0  0  0  0  0  0  0  0  0  0
   12.5798   -3.4275   10.2757 H   0  0  0  0  0  0  0  0  0  0  0  0
   11.0912   -5.1048    8.6276 N   0  0  0  0  0  0  0  0  0  0  0  0
   10.0928   -5.4249    9.6062 C   0  0  0  0  0  0  0  0  0  0  0  0
    8.7772   -4.7175    9.5794 C   0  0  0  0  0  0  0  0  0  0  0  0
   10.3130   -6.2963   10.4923 O   0  0  0  0  0  0  0  0  0  0  0  0
   10.8305   -4.4512    7.8540 H   0  0  0  0  0  0  0  0  0  0  0  0
   14.2310   -4.1500    5.0661 C   0  0  0  0  0  0  0  0  0  0  0  0
   14.4669   -2.7991    4.7752 O   0  0  0  0  0  0  0  0  0  0  0  0
   13.6068   -2.4226    4.4506 H   0  0  0  0  0  0  0  0  0  0  0  0
   11.8498   -7.4425    7.2515 O   0  0  0  0  0  0  0  0  0  0  0  0
   13.9743  -10.0152    5.2132 C   0  0  0  0  0  0  0  0  0  0  0  0
   13.3362  -11.1494    6.0494 C   0  0  0  0  0  0  0  0  0  0  0  0
   14.0046  -12.3608    5.8097 O   0  0  0  0  0  0  0  0  0  0  0  0
   13.4236  -10.8210    7.4231 O   0  0  0  0  0  0  0  0  0  0  0  0
   12.4867   -9.8099    7.7820 C   0  0  0  0  0  0  0  0  0  0  0  0
   12.3532   -8.6676    6.7099 C   0  0  0  0  0  0  0  0  0  0  0  0
   13.5931   -8.6030    5.7561 C   0  0  0  0  0  0  0  0  0  0  0  0
   13.4290   -7.6778    4.7068 O   0  0  0  0  0  0  0  0  0  0  0  0
   14.8921  -12.3016    6.2481 H   0  0  0  0  0  0  0  0  0  0  0  0
   12.4992   -7.7468    4.3688 H   0  0  0  0  0  0  0  0  0  0  0  0
   14.2388  -10.9148    1.3881 C   0  0  0  0  0  0  0  0  0  0  0  0
   14.5408  -10.9317    2.8537 C   0  0  0  0  0  0  0  0  0  0  0  0
   15.5118  -11.6162    3.2638 O   0  0  0  0  0  0  0  0  0  0  0  0
   13.7167  -10.1896    3.7728 N   0  0  0  0  0  0  0  0  0  0  0  0
   12.8881   -9.6858    3.3824 H   0  0  0  0  0  0  0  0  0  0  0  0
   12.8407   -9.3240    9.1978 C   0  0  0  0  0  0  0  0  0  0  0  0
   11.7173   -8.8119    9.8637 O   0  0  0  0  0  0  0  0  0  0  0  0
   11.5707   -7.8932    9.5209 H   0  0  0  0  0  0  0  0  0  0  0  0
   14.8609   -2.8586    7.7262 O   0  0  0  0  0  0  0  0  0  0  0  0
   15.6630   -2.5876    8.8736 C   0  0  0  0  0  0  0  0  0  0  0  0
   15.1064   -1.6114    9.7420 O   0  0  0  0  0  0  0  0  0  0  0  0
   15.7531   -1.6462   11.0051 C   0  0  0  0  0  0  0  0  0  0  0  0
   17.2521   -1.2452   10.8846 C   0  0  0  0  0  0  0  0  0  0  0  0
   17.9084   -1.3958   12.1200 O   0  0  0  0  0  0  0  0  0  0  0  0
   17.9785   -2.0642    9.7859 C   0  0  0  0  0  0  0  0  0  0  0  0
   19.2048   -1.4602    9.4606 O   0  0  0  0  0  0  0  0  0  0  0  0
   17.1270   -2.2549    8.5068 C   0  0  0  0  0  0  0  0  0  0  0  0
   17.8455   -2.3504   12.3826 H   0  0  0  0  0  0  0  0  0  0  0  0
   19.8380   -1.6776   10.1931 H   0  0  0  0  0  0  0  0  0  0  0  0
   17.2787   -1.1536    7.5377 N   0  0  0  0  0  0  0  0  0  0  0  0
   17.2672   -1.2377    6.0995 C   0  0  0  0  0  0  0  0  0  0  0  0
   17.1611    0.0149    5.2881 C   0  0  0  0  0  0  0  0  0  0  0  0
   17.4209   -2.3355    5.5069 O   0  0  0  0  0  0  0  0  0  0  0  0
   17.3178   -0.1906    7.9422 H   0  0  0  0  0  0  0  0  0  0  0  0
   14.9984   -0.7186   11.9678 C   0  0  0  0  0  0  0  0  0  0  0  0
   14.1940    0.1946   11.2722 O   0  0  0  0  0  0  0  0  0  0  0  0
   13.3652   -0.2927   11.0204 H   0  0  0  0  0  0  0  0  0  0  0  0
 28 29  1  0  0  0
 29 30  2  0  0  0
 29 31  1  0  0  0
 31 18  1  0  0  0
 31 32  1  0  0  0
 18 19  1  0  0  0
 18 24  1  0  0  0
 19 20  1  0  0  0
 19 21  1  0  0  0
 20 26  1  0  0  0
 21 22  1  0  0  0
 22 33  1  0  0  0
 22 23  1  0  0  0
 33 34  1  0  0  0
 34 35  1  0  0  0
 23 17  1  0  0  0
 23 24  1  0  0  0
 17  1  1  0  0  0
  1  2  1  0  0  0
  1  7  1  0  0  0
  2  3  1  0  0  0
  3 14  1  0  0  0
  3  4  1  0  0  0
 14 15  1  0  0  0
 15 16  1  0  0  0
  4 36  1  0  0  0
  4  5  1  0  0  0
 36 37  1  0  0  0
 37 38  1  0  0  0
 37 44  1  0  0  0
 38 39  1  0  0  0
 39 52  1  0  0  0
 39 40  1  0  0  0
 52 53  1  0  0  0
 53 54  1  0  0  0
 40 41  1  0  0  0
 40 42  1  0  0  0
 41 45  1  0  0  0
 42 43  1  0  0  0
 42 44  1  0  0  0
 43 46  1  0  0  0
 44 47  1  0  0  0
 47 48  1  0  0  0
 47 51  1  0  0  0
 48 49  1  0  0  0
 48 50  2  0  0  0
  5  6  1  0  0  0
  5  7  1  0  0  0
  6  8  1  0  0  0
  7  9  1  0  0  0
  9 10  1  0  0  0
  9 13  1  0  0  0
 10 11  1  0  0  0
 10 12  2  0  0  0
 24 25  1  0  0  0
 25 27  1  0  0  0
M  END
> <minimizedAffinity>
-5.43778

> <CNNscore>
0.4454060197

> <CNNaffinity>
3.6697859764

> <CNN_VS>
1.6345447302

> <CNNaffinity_variance>
0.5084930658

$$$$



 54 56  0  0  0  0  0  0  0  0999 V2000
    6.8921   -2.7378    7.1906 C   0  0  0  0  0  0  0  0  0  0  0  0
    6.4892   -2.2210    8.4482 O   0  0  0  0  0  0  0  0  0  0  0  0
    5.1895   -2.6260    8.8830 C   0  0  0  0  0  0  0  0  0  0  0  0
    4.4717   -3.6714    7.9716 C   0  0  0  0  0  0  0  0  0  0  0  0
    4.4775   -3.1693    6.5072 C   0  0  0  0  0  0  0  0  0  0  0  0
    3.3725   -2.3276    6.2827 O   0  0  0  0  0  0  0  0  0  0  0  0
    5.8102   -2.4609    6.1307 C   0  0  0  0  0  0  0  0  0  0  0  0
    3.2405   -2.2825    5.2991 H   0  0  0  0  0  0  0  0  0  0  0  0
    5.6196   -1.0110    5.9840 N   0  0  0  0  0  0  0  0  0  0  0  0
    5.9780   -0.2880    4.7983 C   0  0  0  0  0  0  0  0  0  0  0  0
    5.5796    1.1449    4.6570 C   0  0  0  0  0  0  0  0  0  0  0  0
    6.6244   -0.8488    3.8706 O   0  0  0  0  0  0  0  0  0  0  0  0
    5.1728   -0.4815    6.7673 H   0  0  0  0  0  0  0  0  0  0  0  0
    5.3185   -3.1118   10.3373 C   0  0  0  0  0  0  0  0  0  0  0  0
    5.6238   -4.4788   10.3953 O   0  0  0  0  0  0  0  0  0  0  0  0
    4.7898   -4.9675   10.1660 H   0  0  0  0  0  0  0  0  0  0  0  0
    8.0913   -2.0924    6.7934 O   0  0  0  0  0  0  0  0  0  0  0  0
   11.3200   -4.2614    6.3964 C   0  0  0  0  0  0  0  0  0  0  0  0
   11.7669   -3.7876    7.7995 C   0  0  0  0  0  0  0  0  0  0  0  0
   13.0985   -4.1652    8.0353 O   0  0  0  0  0  0  0  0  0  0  0  0
   11.6508   -2.3793    7.8743 O   0  0  0  0  0  0  0  0  0  0  0  0
   10.2916   -1.9699    7.9916 C   0  0  0  0  0  0  0  0  0  0  0  0
    9.3072   -2.7901    7.0804 C   0  0  0  0  0  0  0  0  0  0  0  0
   10.0487   -3.5047    5.9011 C   0  0  0  0  0  0  0  0  0  0  0  0
    9.2049   -4.3526    5.1575 O   0  0  0  0  0  0  0  0  0  0  0  0
   13.6745   -3.5911    7.4678 H   0  0  0  0  0  0  0  0  0  0  0  0
    8.6125   -4.8383    5.7873 H   0  0  0  0  0  0  0  0  0  0  0  0
   11.9684   -8.0996    5.7975 C   0  0  0  0  0  0  0  0  0  0  0  0
   12.2575   -6.6404    5.9604 C   0  0  0  0  0  0  0  0  0  0  0  0
   13.4337   -6.2333    5.7869 O   0  0  0  0  0  0  0  0  0  0  0  0
   11.2046   -5.7289    6.3284 N   0  0  0  0  0  0  0  0  0  0  0  0
   10.2587   -6.1320    6.5168 H   0  0  0  0  0  0  0  0  0  0  0  0
   10.2412   -0.4467    7.7832 C   0  0  0  0  0  0  0  0  0  0  0  0
   10.7905    0.2420    8.8749 O   0  0  0  0  0  0  0  0  0  0  0  0
   10.0995    0.2568    9.5859 H   0  0  0  0  0  0  0  0  0  0  0  0
    3.1246   -3.8478    8.3916 O   0  0  0  0  0  0  0  0  0  0  0  0
    2.7602   -5.1746    8.7656 C   0  0  0  0  0  0  0  0  0  0  0  0
    3.8380   -6.0982    8.7173 O   0  0  0  0  0  0  0  0  0  0  0  0
    3.5057   -7.2840    9.4232 C   0  0  0  0  0  0  0  0  0  0  0  0
    2.3240   -8.0348    8.7435 C   0  0  0  0  0  0  0  0  0  0  0  0
    1.9290   -9.1431    9.5150 O   0  0  0  0  0  0  0  0  0  0  0  0
    1.1156   -7.0953    8.4930 C   0  0  0  0  0  0  0  0  0  0  0  0
    0.2191   -7.6877    7.5875 O   0  0  0  0  0  0  0  0  0  0  0  0
    1.5310   -5.6928    7.9851 C   0  0  0  0  0  0  0  0  0  0  0  0
    1.6361   -8.8070   10.4013 H   0  0  0  0  0  0  0  0  0  0  0  0
   -0.2848   -8.3795    8.0896 H   0  0  0  0  0  0  0  0  0  0  0  0
    1.6645   -5.6216    6.5181 N   0  0  0  0  0  0  0  0  0  0  0  0
    1.0182   -4.7007    5.6182 C   0  0  0  0  0  0  0  0  0  0  0  0
    1.4852   -4.6046    4.2000 C   0  0  0  0  0  0  0  0  0  0  0  0
    0.0184   -4.0284    5.9766 O   0  0  0  0  0  0  0  0  0  0  0  0
    2.3726   -6.2614    6.0918 H   0  0  0  0  0  0  0  0  0  0  0  0
    4.7574   -8.1685    9.5118 C   0  0  0  0  0  0  0  0  0  0  0  0
    4.5535   -9.4067    8.8870 O   0  0  0  0  0  0  0  0  0  0  0  0
    4.6745   -9.2552    7.9122 H   0  0  0  0  0  0  0  0  0  0  0  0
 28 29  1  0  0  0
 29 30  2  0  0  0
 29 31  1  0  0  0
 31 18  1  0  0  0
 31 32  1  0  0  0
 18 19  1  0  0  0
 18 24  1  0  0  0
 19 20  1  0  0  0
 19 21  1  0  0  0
 20 26  1  0  0  0
 21 22  1  0  0  0
 22 33  1  0  0  0
 22 23  1  0  0  0
 33 34  1  0  0  0
 34 35  1  0  0  0
 23 17  1  0  0  0
 23 24  1  0  0  0
 17  1  1  0  0  0
  1  2  1  0  0  0
  1  7  1  0  0  0
  2  3  1  0  0  0
  3 14  1  0  0  0
  3  4  1  0  0  0
 14 15  1  0  0  0
 15 16  1  0  0  0
  4 36  1  0  0  0
  4  5  1  0  0  0
 36 37  1  0  0  0
 37 38  1  0  0  0
 37 44  1  0  0  0
 38 39  1  0  0  0
 39 52  1  0  0  0
 39 40  1  0  0  0
 52 53  1  0  0  0
 53 54  1  0  0  0
 40 41  1  0  0  0
 40 42  1  0  0  0
 41 45  1  0  0  0
 42 43  1  0  0  0
 42 44  1  0  0  0
 43 46  1  0  0  0
 44 47  1  0  0  0
 47 48  1  0  0  0
 47 51  1  0  0  0
 48 49  1  0  0  0
 48 50  2  0  0  0
  5  6  1  0  0  0
  5  7  1  0  0  0
  6  8  1  0  0  0
  7  9  1  0  0  0
  9 10  1  0  0  0
  9 13  1  0  0  0
 10 11  1  0  0  0
 10 12  2  0  0  0
 24 25  1  0  0  0
 25 27  1  0  0  0
M  END
> <minimizedAffinity>
-7.74960

> <CNNscore>
0.3602966964

> <CNNaffinity>
4.0738978386

> <CNN_VS>
1.4678119421

> <CNNaffinity_variance>
1.4705610275

$$$$



 54 56  0  0  0  0  0  0  0  0999 V2000
    6.8751   -2.7588    7.2266 C   0  0  0  0  0  0  0  0  0  0  0  0
    6.4692   -2.2093    8.4694 O   0  0  0  0  0  0  0  0  0  0  0  0
    5.1784   -2.6218    8.9231 C   0  0  0  0  0  0  0  0  0  0  0  0
    4.4740   -3.7070    8.0484 C   0  0  0  0  0  0  0  0  0  0  0  0
    4.4650   -3.2512    6.5690 C   0  0  0  0  0  0  0  0  0  0  0  0
    3.3452   -2.4353    6.3236 O   0  0  0  0  0  0  0  0  0  0  0  0
    5.7841   -2.5332    6.1639 C   0  0  0  0  0  0  0  0  0  0  0  0
    3.2081   -2.4234    5.3398 H   0  0  0  0  0  0  0  0  0  0  0  0
    5.5688   -1.0920    5.9727 N   0  0  0  0  0  0  0  0  0  0  0  0
    5.9256   -0.3977    4.7695 C   0  0  0  0  0  0  0  0  0  0  0  0
    5.5028    1.0229    4.5823 C   0  0  0  0  0  0  0  0  0  0  0  0
    6.5911   -0.9735    3.8648 O   0  0  0  0  0  0  0  0  0  0  0  0
    5.1049   -0.5480    6.7358 H   0  0  0  0  0  0  0  0  0  0  0  0
    5.3219   -3.0594   10.3912 C   0  0  0  0  0  0  0  0  0  0  0  0
    5.5693   -4.4354   10.4935 O   0  0  0  0  0  0  0  0  0  0  0  0
    4.7098   -4.8951   10.3018 H   0  0  0  0  0  0  0  0  0  0  0  0
    8.0616   -2.1066    6.8034 O   0  0  0  0  0  0  0  0  0  0  0  0
   11.5626   -2.5252    8.4929 C   0  0  0  0  0  0  0  0  0  0  0  0
   11.0898   -1.5804    9.6228 C   0  0  0  0  0  0  0  0  0  0  0  0
   12.1757   -1.2191   10.4363 O   0  0  0  0  0  0  0  0  0  0  0  0
   10.5168   -0.4201    9.0503 O   0  0  0  0  0  0  0  0  0  0  0  0
    9.2255   -0.6838    8.5102 C   0  0  0  0  0  0  0  0  0  0  0  0
    9.1288   -2.0598    7.7555 C   0  0  0  0  0  0  0  0  0  0  0  0
   10.5339   -2.5972    7.3221 C   0  0  0  0  0  0  0  0  0  0  0  0
   10.4781   -3.8909    6.7679 O   0  0  0  0  0  0  0  0  0  0  0  0
   12.7421   -0.5942    9.9146 H   0  0  0  0  0  0  0  0  0  0  0  0
    9.8402   -4.4337    7.2989 H   0  0  0  0  0  0  0  0  0  0  0  0
   13.5890   -5.6293    9.8231 C   0  0  0  0  0  0  0  0  0  0  0  0
   13.2885   -4.2142    9.4402 C   0  0  0  0  0  0  0  0  0  0  0  0
   14.2072   -3.3597    9.5116 O   0  0  0  0  0  0  0  0  0  0  0  0
   11.9626   -3.8432    9.0170 N   0  0  0  0  0  0  0  0  0  0  0  0
   11.2241   -4.5829    9.0328 H   0  0  0  0  0  0  0  0  0  0  0  0
    8.8086    0.5381    7.6740 C   0  0  0  0  0  0  0  0  0  0  0  0
    7.4156    0.7026    7.6595 O   0  0  0  0  0  0  0  0  0  0  0  0
    7.0539    0.0548    7.0018 H   0  0  0  0  0  0  0  0  0  0  0  0
    3.1318   -3.8922    8.4805 O   0  0  0  0  0  0  0  0  0  0  0  0
    2.7711   -5.2269    8.8294 C   0  0  0  0  0  0  0  0  0  0  0  0
    3.8532   -6.1450    8.7707 O   0  0  0  0  0  0  0  0  0  0  0  0
    3.5223   -7.3443    9.4541 C   0  0  0  0  0  0  0  0  0  0  0  0
    2.3473   -8.0881    8.7552 C   0  0  0  0  0  0  0  0  0  0  0  0
    1.9530   -9.2113    9.5052 O   0  0  0  0  0  0  0  0  0  0  0  0
    1.1362   -7.1494    8.5147 C   0  0  0  0  0  0  0  0  0  0  0  0
    0.2470   -7.7296    7.5943 O   0  0  0  0  0  0  0  0  0  0  0  0
    1.5483   -5.7365    8.0334 C   0  0  0  0  0  0  0  0  0  0  0  0
    1.6541   -8.8919   10.3956 H   0  0  0  0  0  0  0  0  0  0  0  0
   -0.2565   -8.4322    8.0816 H   0  0  0  0  0  0  0  0  0  0  0  0
    1.6892   -5.6393    6.5686 N   0  0  0  0  0  0  0  0  0  0  0  0
    0.9852   -4.7578    5.6724 C   0  0  0  0  0  0  0  0  0  0  0  0
    1.4565   -4.6120    4.2598 C   0  0  0  0  0  0  0  0  0  0  0  0
   -0.0641   -4.1644    6.0283 O   0  0  0  0  0  0  0  0  0  0  0  0
    2.4458   -6.2208    6.1424 H   0  0  0  0  0  0  0  0  0  0  0  0
    4.7772   -8.2250    9.5340 C   0  0  0  0  0  0  0  0  0  0  0  0
    4.5794   -9.4558    8.8930 O   0  0  0  0  0  0  0  0  0  0  0  0
    4.7017   -9.2914    7.9204 H   0  0  0  0  0  0  0  0  0  0  0  0
 28 29  1  0  0  0
 29 30  2  0  0  0
 29 31  1  0  0  0
 31 18  1  0  0  0
 31 32  1  0  0  0
 18 19  1  0  0  0
 18 24  1  0  0  0
 19 20  1  0  0  0
 19 21  1  0  0  0
 20 26  1  0  0  0
 21 22  1  0  0  0
 22 33  1  0  0  0
 22 23  1  0  0  0
 33 34  1  0  0  0
 34 35  1  0  0  0
 23 17  1  0  0  0
 23 24  1  0  0  0
 17  1  1  0  0  0
  1  2  1  0  0  0
  1  7  1  0  0  0
  2  3  1  0  0  0
  3 14  1  0  0  0
  3  4  1  0  0  0
 14 15  1  0  0  0
 15 16  1  0  0  0
  4 36  1  0  0  0
  4  5  1  0  0  0
 36 37  1  0  0  0
 37 38  1  0  0  0
 37 44  1  0  0  0
 38 39  1  0  0  0
 39 52  1  0  0  0
 39 40  1  0  0  0
 52 53  1  0  0  0
 53 54  1  0  0  0
 40 41  1  0  0  0
 40 42  1  0  0  0
 41 45  1  0  0  0
 42 43  1  0  0  0
 42 44  1  0  0  0
 43 46  1  0  0  0
 44 47  1  0  0  0
 47 48  1  0  0  0
 47 51  1  0  0  0
 48 49  1  0  0  0
 48 50  2  0  0  0
  5  6  1  0  0  0
  5  7  1  0  0  0
  6  8  1  0  0  0
  7  9  1  0  0  0
  9 10  1  0  0  0
  9 13  1  0  0  0
 10 11  1  0  0  0
 10 12  2  0  0  0
 24 25  1  0  0  0
 25 27  1  0  0  0
M  END
> <minimizedAffinity>
-7.34760

> <CNNscore>
0.3274950385

> <CNNaffinity>
3.9782059193

> <CNN_VS>
1.3028427362

> <CNNaffinity_variance>
1.1059628725

$$$$



 54 56  0  0  0  0  0  0  0  0999 V2000
    5.5227   -2.6719    8.0842 C   0  0  0  0  0  0  0  0  0  0  0  0
    6.6215   -3.5246    7.8073 O   0  0  0  0  0  0  0  0  0  0  0  0
    7.5669   -3.0108    6.8668 C   0  0  0  0  0  0  0  0  0  0  0  0
    7.3124   -1.5454    6.3907 C   0  0  0  0  0  0  0  0  0  0  0  0
    5.8513   -1.4097    5.8974 C   0  0  0  0  0  0  0  0  0  0  0  0
    5.7636   -1.7843    4.5439 O   0  0  0  0  0  0  0  0  0  0  0  0
    4.8544   -2.2227    6.7720 C   0  0  0  0  0  0  0  0  0  0  0  0
    4.9167   -1.4008    4.1937 H   0  0  0  0  0  0  0  0  0  0  0  0
    4.3453   -3.3960    6.0480 N   0  0  0  0  0  0  0  0  0  0  0  0
    2.9522   -3.7285    5.9728 C   0  0  0  0  0  0  0  0  0  0  0  0
    2.5017   -4.8253    5.0639 C   0  0  0  0  0  0  0  0  0  0  0  0
    2.1008   -3.1036    6.6638 O   0  0  0  0  0  0  0  0  0  0  0  0
    5.0248   -4.0035    5.5355 H   0  0  0  0  0  0  0  0  0  0  0  0
    8.9689   -3.1910    7.4745 C   0  0  0  0  0  0  0  0  0  0  0  0
    9.3092   -2.1143    8.3052 O   0  0  0  0  0  0  0  0  0  0  0  0
    9.5210   -1.3490    7.7083 H   0  0  0  0  0  0  0  0  0  0  0  0
    4.5712   -3.3872    8.8556 O   0  0  0  0  0  0  0  0  0  0  0  0
    5.7033   -5.2728   12.0882 C   0  0  0  0  0  0  0  0  0  0  0  0
    5.8634   -6.5563   11.2396 C   0  0  0  0  0  0  0  0  0  0  0  0
    6.0664   -7.6658   12.0757 O   0  0  0  0  0  0  0  0  0  0  0  0
    4.6953   -6.7511   10.4649 O   0  0  0  0  0  0  0  0  0  0  0  0
    4.6331   -5.8414    9.3707 C   0  0  0  0  0  0  0  0  0  0  0  0
    5.0963   -4.3844    9.7375 C   0  0  0  0  0  0  0  0  0  0  0  0
    5.0401   -4.1156   11.2788 C   0  0  0  0  0  0  0  0  0  0  0  0
    5.5804   -2.8650   11.6365 O   0  0  0  0  0  0  0  0  0  0  0  0
    5.2036   -7.8617   12.5235 H   0  0  0  0  0  0  0  0  0  0  0  0
    6.3983   -2.7096   11.0976 H   0  0  0  0  0  0  0  0  0  0  0  0
    8.6419   -4.7501   14.6577 C   0  0  0  0  0  0  0  0  0  0  0  0
    7.3983   -5.3203   14.0511 C   0  0  0  0  0  0  0  0  0  0  0  0
    6.7531   -6.1859   14.6943 O   0  0  0  0  0  0  0  0  0  0  0  0
    6.9666   -4.8932   12.7450 N   0  0  0  0  0  0  0  0  0  0  0  0
    7.5739   -4.2145   12.2319 H   0  0  0  0  0  0  0  0  0  0  0  0
    3.2224   -5.9334    8.7643 C   0  0  0  0  0  0  0  0  0  0  0  0
    2.3829   -4.9223    9.2548 O   0  0  0  0  0  0  0  0  0  0  0  0
    2.0792   -5.2083   10.1542 H   0  0  0  0  0  0  0  0  0  0  0  0
    8.1908   -1.2156    5.3220 O   0  0  0  0  0  0  0  0  0  0  0  0
    9.0784   -0.1259    5.5625 C   0  0  0  0  0  0  0  0  0  0  0  0
    9.0606    0.3401    6.9040 O   0  0  0  0  0  0  0  0  0  0  0  0
   10.1903    1.1610    7.1579 C   0  0  0  0  0  0  0  0  0  0  0  0
   10.1519    2.4581    6.2987 C   0  0  0  0  0  0  0  0  0  0  0  0
   11.3312    3.2055    6.4726 O   0  0  0  0  0  0  0  0  0  0  0  0
    9.9302    2.1445    4.7960 C   0  0  0  0  0  0  0  0  0  0  0  0
    9.5576    3.3106    4.1061 O   0  0  0  0  0  0  0  0  0  0  0  0
    8.8824    1.0301    4.5556 C   0  0  0  0  0  0  0  0  0  0  0  0
   12.0934    2.6421    6.1799 H   0  0  0  0  0  0  0  0  0  0  0  0
   10.3813    3.8500    3.9830 H   0  0  0  0  0  0  0  0  0  0  0  0
    7.5008    1.5392    4.4715 N   0  0  0  0  0  0  0  0  0  0  0  0
    6.5622    1.3661    3.3923 C   0  0  0  0  0  0  0  0  0  0  0  0
    5.1234    1.7187    3.6022 C   0  0  0  0  0  0  0  0  0  0  0  0
    6.9380    0.9962    2.2512 O   0  0  0  0  0  0  0  0  0  0  0  0
    7.1343    2.0108    5.3292 H   0  0  0  0  0  0  0  0  0  0  0  0
   10.2358    1.4816    8.6585 C   0  0  0  0  0  0  0  0  0  0  0  0
    9.8651    2.8101    8.9088 O   0  0  0  0  0  0  0  0  0  0  0  0
    8.8717    2.8356    8.8875 H   0  0  0  0  0  0  0  0  0  0  0  0
 28 29  1  0  0  0
 29 30  2  0  0  0
 29 31  1  0  0  0
 31 18  1  0  0  0
 31 32  1  0  0  0
 18 19  1  0  0  0
 18 24  1  0  0  0
 19 20  1  0  0  0
 19 21  1  0  0  0
 20 26  1  0  0  0
 21 22  1  0  0  0
 22 33  1  0  0  0
 22 23  1  0  0  0
 33 34  1  0  0  0
 34 35  1  0  0  0
 23 17  1  0  0  0
 23 24  1  0  0  0
 17  1  1  0  0  0
  1  2  1  0  0  0
  1  7  1  0  0  0
  2  3  1  0  0  0
  3 14  1  0  0  0
  3  4  1  0  0  0
 14 15  1  0  0  0
 15 16  1  0  0  0
  4 36  1  0  0  0
  4  5  1  0  0  0
 36 37  1  0  0  0
 37 38  1  0  0  0
 37 44  1  0  0  0
 38 39  1  0  0  0
 39 52  1  0  0  0
 39 40  1  0  0  0
 52 53  1  0  0  0
 53 54  1  0  0  0
 40 41  1  0  0  0
 40 42  1  0  0  0
 41 45  1  0  0  0
 42 43  1  0  0  0
 42 44  1  0  0  0
 43 46  1  0  0  0
 44 47  1  0  0  0
 47 48  1  0  0  0
 47 51  1  0  0  0
 48 49  1  0  0  0
 48 50  2  0  0  0
  5  6  1  0  0  0
  5  7  1  0  0  0
  6  8  1  0  0  0
  7  9  1  0  0  0
  9 10  1  0  0  0
  9 13  1  0  0  0
 10 11  1  0  0  0
 10 12  2  0  0  0
 24 25  1  0  0  0
 25 27  1  0  0  0
M  END
> <minimizedAffinity>
-7.41538

> <CNNscore>
0.2818602920

> <CNNaffinity>
3.9033596516

> <CNN_VS>
1.1002020836

> <CNNaffinity_variance>
1.1463675499

$$$$



 54 56  0  0  0  0  0  0  0  0999 V2000
   14.4386    4.0800    4.1469 C   0  0  0  0  0  0  0  0  0  0  0  0
   15.6782    4.4566    3.5702 O   0  0  0  0  0  0  0  0  0  0  0  0
   16.5010    5.2896    4.3896 C   0  0  0  0  0  0  0  0  0  0  0  0
   15.9674    5.5480    5.8344 C   0  0  0  0  0  0  0  0  0  0  0  0
   14.5037    6.0472    5.7621 C   0  0  0  0  0  0  0  0  0  0  0  0
   14.4796    7.4429    5.5850 O   0  0  0  0  0  0  0  0  0  0  0  0
   13.6872    5.3250    4.6524 C   0  0  0  0  0  0  0  0  0  0  0  0
   13.5725    7.7505    5.8484 H   0  0  0  0  0  0  0  0  0  0  0  0
   13.4068    6.2262    3.5258 N   0  0  0  0  0  0  0  0  0  0  0  0
   12.0817    6.6305    3.1548 C   0  0  0  0  0  0  0  0  0  0  0  0
   11.8948    7.6930    2.1214 C   0  0  0  0  0  0  0  0  0  0  0  0
   11.0705    6.1008    3.6930 O   0  0  0  0  0  0  0  0  0  0  0  0
   14.2110    6.6189    2.9848 H   0  0  0  0  0  0  0  0  0  0  0  0
   17.9160    4.6851    4.3904 C   0  0  0  0  0  0  0  0  0  0  0  0
   18.8814    5.6421    4.7329 O   0  0  0  0  0  0  0  0  0  0  0  0
   18.9905    6.2333    3.9421 H   0  0  0  0  0  0  0  0  0  0  0  0
   13.6471    3.4442    3.1561 O   0  0  0  0  0  0  0  0  0  0  0  0
   10.3208    1.4092    3.4404 C   0  0  0  0  0  0  0  0  0  0  0  0
   10.9569    0.6006    4.5955 C   0  0  0  0  0  0  0  0  0  0  0  0
   10.1476   -0.5010    4.9168 O   0  0  0  0  0  0  0  0  0  0  0  0
   12.2383    0.1503    4.1984 O   0  0  0  0  0  0  0  0  0  0  0  0
   13.1908    1.2094    4.1998 C   0  0  0  0  0  0  0  0  0  0  0  0
   12.6259    2.5636    3.6348 C   0  0  0  0  0  0  0  0  0  0  0  0
   11.3543    2.3500    2.7468 C   0  0  0  0  0  0  0  0  0  0  0  0
   10.7566    3.5609    2.3463 O   0  0  0  0  0  0  0  0  0  0  0  0
   10.2337   -1.1576    4.1787 H   0  0  0  0  0  0  0  0  0  0  0  0
   10.7717    4.1885    3.1139 H   0  0  0  0  0  0  0  0  0  0  0  0
    7.6400    3.5580    5.3658 C   0  0  0  0  0  0  0  0  0  0  0  0
    8.9804    3.0424    4.9453 C   0  0  0  0  0  0  0  0  0  0  0  0
   10.0049    3.4668    5.5367 O   0  0  0  0  0  0  0  0  0  0  0  0
    9.0869    2.0917    3.8685 N   0  0  0  0  0  0  0  0  0  0  0  0
    8.2070    1.8186    3.3746 H   0  0  0  0  0  0  0  0  0  0  0  0
   14.4599    0.6994    3.4960 C   0  0  0  0  0  0  0  0  0  0  0  0
   14.4593    1.0244    2.1314 O   0  0  0  0  0  0  0  0  0  0  0  0
   13.8718    0.3676    1.6770 H   0  0  0  0  0  0  0  0  0  0  0  0
   16.7587    6.5365    6.4818 O   0  0  0  0  0  0  0  0  0  0  0  0
   17.0790    6.2781    7.8470 C   0  0  0  0  0  0  0  0  0  0  0  0
   16.2111    6.9213    8.7690 O   0  0  0  0  0  0  0  0  0  0  0  0
   16.3555    6.3549   10.0625 C   0  0  0  0  0  0  0  0  0  0  0  0
   17.7808    6.6067   10.6347 C   0  0  0  0  0  0  0  0  0  0  0  0
   17.9483    5.9425   11.8636 O   0  0  0  0  0  0  0  0  0  0  0  0
   18.8850    6.1749    9.6347 C   0  0  0  0  0  0  0  0  0  0  0  0
   20.1238    6.7191   10.0139 O   0  0  0  0  0  0  0  0  0  0  0  0
   18.5636    6.5612    8.1701 C   0  0  0  0  0  0  0  0  0  0  0  0
   17.8278    4.9710   11.7024 H   0  0  0  0  0  0  0  0  0  0  0  0
   20.4547    6.1805   10.7788 H   0  0  0  0  0  0  0  0  0  0  0  0
   19.0185    7.9180    7.8134 N   0  0  0  0  0  0  0  0  0  0  0  0
   19.9530    8.2914    6.7824 C   0  0  0  0  0  0  0  0  0  0  0  0
   20.0817    9.7292    6.3889 C   0  0  0  0  0  0  0  0  0  0  0  0
   20.7198    7.4455    6.2566 O   0  0  0  0  0  0  0  0  0  0  0  0
   18.5459    8.7049    8.3133 H   0  0  0  0  0  0  0  0  0  0  0  0
   15.2707    6.9400   10.9776 C   0  0  0  0  0  0  0  0  0  0  0  0
   14.0827    6.2000   10.8998 O   0  0  0  0  0  0  0  0  0  0  0  0
   14.2068    5.4034   11.4809 H   0  0  0  0  0  0  0  0  0  0  0  0
 28 29  1  0  0  0
 29 30  2  0  0  0
 29 31  1  0  0  0
 31 18  1  0  0  0
 31 32  1  0  0  0
 18 19  1  0  0  0
 18 24  1  0  0  0
 19 20  1  0  0  0
 19 21  1  0  0  0
 20 26  1  0  0  0
 21 22  1  0  0  0
 22 33  1  0  0  0
 22 23  1  0  0  0
 33 34  1  0  0  0
 34 35  1  0  0  0
 23 17  1  0  0  0
 23 24  1  0  0  0
 17  1  1  0  0  0
  1  2  1  0  0  0
  1  7  1  0  0  0
  2  3  1  0  0  0
  3 14  1  0  0  0
  3  4  1  0  0  0
 14 15  1  0  0  0
 15 16  1  0  0  0
  4 36  1  0  0  0
  4  5  1  0  0  0
 36 37  1  0  0  0
 37 38  1  0  0  0
 37 44  1  0  0  0
 38 39  1  0  0  0
 39 52  1  0  0  0
 39 40  1  0  0  0
 52 53  1  0  0  0
 53 54  1  0  0  0
 40 41  1  0  0  0
 40 42  1  0  0  0
 41 45  1  0  0  0
 42 43  1  0  0  0
 42 44  1  0  0  0
 43 46  1  0  0  0
 44 47  1  0  0  0
 47 48  1  0  0  0
 47 51  1  0  0  0
 48 49  1  0  0  0
 48 50  2  0  0  0
  5  6  1  0  0  0
  5  7  1  0  0  0
  6  8  1  0  0  0
  7  9  1  0  0  0
  9 10  1  0  0  0
  9 13  1  0  0  0
 10 11  1  0  0  0
 10 12  2  0  0  0
 24 25  1  0  0  0
 25 27  1  0  0  0
M  END
> <minimizedAffinity>
-5.46336

> <CNNscore>
0.2808621526

> <CNNaffinity>
3.4779961109

> <CNN_VS>
0.9768374562

> <CNNaffinity_variance>
0.6077040434

$$$$



 54 56  0  0  0  0  0  0  0  0999 V2000
    7.4330   -5.9057   11.9487 C   0  0  0  0  0  0  0  0  0  0  0  0
    6.5571   -5.0231   12.6305 O   0  0  0  0  0  0  0  0  0  0  0  0
    5.4049   -4.6177   11.8885 C   0  0  0  0  0  0  0  0  0  0  0  0
    5.2241   -5.3069   10.4989 C   0  0  0  0  0  0  0  0  0  0  0  0
    6.5326   -5.1731    9.6825 C   0  0  0  0  0  0  0  0  0  0  0  0
    6.5440   -3.9488    8.9890 O   0  0  0  0  0  0  0  0  0  0  0  0
    7.8010   -5.3294   10.5693 C   0  0  0  0  0  0  0  0  0  0  0  0
    7.2182   -4.0349    8.2646 H   0  0  0  0  0  0  0  0  0  0  0  0
    8.4944   -4.0446   10.7378 N   0  0  0  0  0  0  0  0  0  0  0  0
    9.8349   -3.8106   10.2847 C   0  0  0  0  0  0  0  0  0  0  0  0
   10.3980   -2.4274   10.3238 C   0  0  0  0  0  0  0  0  0  0  0  0
   10.5448   -4.7596    9.8506 O   0  0  0  0  0  0  0  0  0  0  0  0
    7.9788   -3.2501   11.1811 H   0  0  0  0  0  0  0  0  0  0  0  0
    4.1784   -4.8084   12.7977 C   0  0  0  0  0  0  0  0  0  0  0  0
    3.1285   -3.9567   12.4267 O   0  0  0  0  0  0  0  0  0  0  0  0
    3.3791   -3.0451   12.7318 H   0  0  0  0  0  0  0  0  0  0  0  0
    8.6207   -6.0511   12.7105 O   0  0  0  0  0  0  0  0  0  0  0  0
    7.8022   -9.4674   14.4268 C   0  0  0  0  0  0  0  0  0  0  0  0
    9.3192   -9.6826   14.6394 C   0  0  0  0  0  0  0  0  0  0  0  0
    9.5651  -10.9965   15.0690 O   0  0  0  0  0  0  0  0  0  0  0  0
    9.9986   -9.4449   13.4210 O   0  0  0  0  0  0  0  0  0  0  0  0
   10.0734   -8.0538   13.1241 C   0  0  0  0  0  0  0  0  0  0  0  0
    8.7501   -7.2696   13.4497 C   0  0  0  0  0  0  0  0  0  0  0  0
    7.5074   -8.2174   13.5409 C   0  0  0  0  0  0  0  0  0  0  0  0
    6.3411   -7.5518   13.9659 O   0  0  0  0  0  0  0  0  0  0  0  0
    9.4129  -11.5955   14.2934 H   0  0  0  0  0  0  0  0  0  0  0  0
    6.5852   -6.9212   14.6914 H   0  0  0  0  0  0  0  0  0  0  0  0
    6.6536   -8.9302   18.1555 C   0  0  0  0  0  0  0  0  0  0  0  0
    7.4054   -8.7199   16.8788 C   0  0  0  0  0  0  0  0  0  0  0  0
    8.3211   -7.8596   16.8503 O   0  0  0  0  0  0  0  0  0  0  0  0
    7.0663   -9.4803   15.7034 N   0  0  0  0  0  0  0  0  0  0  0  0
    6.2577  -10.1396   15.7695 H   0  0  0  0  0  0  0  0  0  0  0  0
   10.5652   -7.9098   11.6738 C   0  0  0  0  0  0  0  0  0  0  0  0
   11.0741   -9.1197   11.1789 O   0  0  0  0  0  0  0  0  0  0  0  0
   11.9912   -9.2190   11.5426 H   0  0  0  0  0  0  0  0  0  0  0  0
    4.1665   -4.6884    9.7768 O   0  0  0  0  0  0  0  0  0  0  0  0
    3.1961   -5.5722    9.2195 C   0  0  0  0  0  0  0  0  0  0  0  0
    3.7139   -6.8519    8.8857 O   0  0  0  0  0  0  0  0  0  0  0  0
    2.6558   -7.7749    8.6775 C   0  0  0  0  0  0  0  0  0  0  0  0
    1.7908   -7.3760    7.4467 C   0  0  0  0  0  0  0  0  0  0  0  0
    0.6802   -8.2305    7.3209 O   0  0  0  0  0  0  0  0  0  0  0  0
    1.3265   -5.8983    7.5266 C   0  0  0  0  0  0  0  0  0  0  0  0
    0.8566   -5.4683    6.2740 O   0  0  0  0  0  0  0  0  0  0  0  0
    2.4321   -4.9402    8.0340 C   0  0  0  0  0  0  0  0  0  0  0  0
    0.1354   -8.1434    8.1454 H   0  0  0  0  0  0  0  0  0  0  0  0
   -0.0477   -5.8588    6.1544 H   0  0  0  0  0  0  0  0  0  0  0  0
    3.2960   -4.4257    6.9551 N   0  0  0  0  0  0  0  0  0  0  0  0
    3.5444   -3.0503    6.6056 C   0  0  0  0  0  0  0  0  0  0  0  0
    4.6580   -2.7183    5.6631 C   0  0  0  0  0  0  0  0  0  0  0  0
    2.7977   -2.1259    7.0153 O   0  0  0  0  0  0  0  0  0  0  0  0
    3.8553   -5.1407    6.4370 H   0  0  0  0  0  0  0  0  0  0  0  0
    3.2554   -9.1785    8.5123 C   0  0  0  0  0  0  0  0  0  0  0  0
    4.4889   -9.2878    9.1691 O   0  0  0  0  0  0  0  0  0  0  0  0
    4.2856   -9.4387   10.1302 H   0  0  0  0  0  0  0  0  0  0  0  0
 28 29  1  0  0  0
 29 30  2  0  0  0
 29 31  1  0  0  0
 31 18  1  0  0  0
 31 32  1  0  0  0
 18 19  1  0  0  0
 18 24  1  0  0  0
 19 20  1  0  0  0
 19 21  1  0  0  0
 20 26  1  0  0  0
 21 22  1  0  0  0
 22 33  1  0  0  0
 22 23  1  0  0  0
 33 34  1  0  0  0
 34 35  1  0  0  0
 23 17  1  0  0  0
 23 24  1  0  0  0
 17  1  1  0  0  0
  1  2  1  0  0  0
  1  7  1  0  0  0
  2  3  1  0  0  0
  3 14  1  0  0  0
  3  4  1  0  0  0
 14 15  1  0  0  0
 15 16  1  0  0  0
  4 36  1  0  0  0
  4  5  1  0  0  0
 36 37  1  0  0  0
 37 38  1  0  0  0
 37 44  1  0  0  0
 38 39  1  0  0  0
 39 52  1  0  0  0
 39 40  1  0  0  0
 52 53  1  0  0  0
 53 54  1  0  0  0
 40 41  1  0  0  0
 40 42  1  0  0  0
 41 45  1  0  0  0
 42 43  1  0  0  0
 42 44  1  0  0  0
 43 46  1  0  0  0
 44 47  1  0  0  0
 47 48  1  0  0  0
 47 51  1  0  0  0
 48 49  1  0  0  0
 48 50  2  0  0  0
  5  6  1  0  0  0
  5  7  1  0  0  0
  6  8  1  0  0  0
  7  9  1  0  0  0
  9 10  1  0  0  0
  9 13  1  0  0  0
 10 11  1  0  0  0
 10 12  2  0  0  0
 24 25  1  0  0  0
 25 27  1  0  0  0
M  END
> <minimizedAffinity>
-6.98184

> <CNNscore>
0.2664373815

> <CNNaffinity>
3.5890884399

> <CNN_VS>
0.9562672973

> <CNNaffinity_variance>
0.9783886075

$$$$



 54 56  0  0  0  0  0  0  0  0999 V2000
   10.9405   -4.2258    9.4872 C   0  0  0  0  0  0  0  0  0  0  0  0
   10.8146   -5.2777    8.5445 O   0  0  0  0  0  0  0  0  0  0  0  0
    9.5094   -5.4391    7.9853 C   0  0  0  0  0  0  0  0  0  0  0  0
    8.4625   -4.3570    8.3999 C   0  0  0  0  0  0  0  0  0  0  0  0
    8.4353   -4.2299    9.9426 C   0  0  0  0  0  0  0  0  0  0  0  0
    7.5548   -5.1821   10.4884 O   0  0  0  0  0  0  0  0  0  0  0  0
    9.8534   -4.3497   10.5704 C   0  0  0  0  0  0  0  0  0  0  0  0
    7.3335   -4.8757   11.4071 H   0  0  0  0  0  0  0  0  0  0  0  0
   10.0120   -5.6222   11.2885 N   0  0  0  0  0  0  0  0  0  0  0  0
   10.0587   -5.7159   12.7189 C   0  0  0  0  0  0  0  0  0  0  0  0
   10.0316   -7.0586   13.3734 C   0  0  0  0  0  0  0  0  0  0  0  0
   10.1200   -4.6768   13.4326 O   0  0  0  0  0  0  0  0  0  0  0  0
   10.0625   -6.5081   10.7352 H   0  0  0  0  0  0  0  0  0  0  0  0
    9.6694   -5.5403    6.4584 C   0  0  0  0  0  0  0  0  0  0  0  0
    8.7363   -6.4272    5.9034 O   0  0  0  0  0  0  0  0  0  0  0  0
    9.0442   -7.3441    6.1298 H   0  0  0  0  0  0  0  0  0  0  0  0
   12.2123   -4.3179   10.1089 O   0  0  0  0  0  0  0  0  0  0  0  0
   13.9702   -1.8276   12.5573 C   0  0  0  0  0  0  0  0  0  0  0  0
   13.8311   -0.7267   11.4794 C   0  0  0  0  0  0  0  0  0  0  0  0
   14.5794    0.4039   11.8445 O   0  0  0  0  0  0  0  0  0  0  0  0
   14.2973   -1.2266   10.2403 O   0  0  0  0  0  0  0  0  0  0  0  0
   13.3699   -2.1385    9.6596 C   0  0  0  0  0  0  0  0  0  0  0  0
   12.7125   -3.1154   10.7015 C   0  0  0  0  0  0  0  0  0  0  0  0
   13.5532   -3.2307   12.0172 C   0  0  0  0  0  0  0  0  0  0  0  0
   12.9107   -3.9926   13.0125 O   0  0  0  0  0  0  0  0  0  0  0  0
   15.5376    0.1738   11.7335 H   0  0  0  0  0  0  0  0  0  0  0  0
   11.9468   -3.7593   13.0143 H   0  0  0  0  0  0  0  0  0  0  0  0
   11.3449   -0.7284   15.2795 C   0  0  0  0  0  0  0  0  0  0  0  0
   11.8822   -1.2471   13.9827 C   0  0  0  0  0  0  0  0  0  0  0  0
   11.0752   -1.5172   13.0579 O   0  0  0  0  0  0  0  0  0  0  0  0
   13.2983   -1.4483   13.8127 N   0  0  0  0  0  0  0  0  0  0  0  0
   13.9162   -1.2623   14.6351 H   0  0  0  0  0  0  0  0  0  0  0  0
   14.0721   -2.8342    8.4810 C   0  0  0  0  0  0  0  0  0  0  0  0
   15.4558   -2.9316    8.6895 O   0  0  0  0  0  0  0  0  0  0  0  0
   15.8446   -2.0452    8.4748 H   0  0  0  0  0  0  0  0  0  0  0  0
    7.1664   -4.7269    7.9464 O   0  0  0  0  0  0  0  0  0  0  0  0
    6.4887   -3.7587    7.1487 C   0  0  0  0  0  0  0  0  0  0  0  0
    7.1999   -2.5378    7.0051 O   0  0  0  0  0  0  0  0  0  0  0  0
    6.6584   -1.7718    5.9398 C   0  0  0  0  0  0  0  0  0  0  0  0
    5.1967   -1.3328    6.2446 C   0  0  0  0  0  0  0  0  0  0  0  0
    4.6329   -0.6757    5.1356 O   0  0  0  0  0  0  0  0  0  0  0  0
    4.3121   -2.5357    6.6642 C   0  0  0  0  0  0  0  0  0  0  0  0
    3.1224   -2.0804    7.2574 O   0  0  0  0  0  0  0  0  0  0  0  0
    5.0353   -3.5192    7.6167 C   0  0  0  0  0  0  0  0  0  0  0  0
    4.6311   -1.3120    4.3745 H   0  0  0  0  0  0  0  0  0  0  0  0
    2.5344   -1.7657    6.5227 H   0  0  0  0  0  0  0  0  0  0  0  0
    4.9042   -3.1534    9.0394 N   0  0  0  0  0  0  0  0  0  0  0  0
    4.0808   -3.7845   10.0391 C   0  0  0  0  0  0  0  0  0  0  0  0
    4.2857   -3.4490   11.4827 C   0  0  0  0  0  0  0  0  0  0  0  0
    3.1406   -4.5557    9.7210 O   0  0  0  0  0  0  0  0  0  0  0  0
    5.5444   -2.4002    9.3787 H   0  0  0  0  0  0  0  0  0  0  0  0
    7.5696   -0.5610    5.6943 C   0  0  0  0  0  0  0  0  0  0  0  0
    7.4203   -0.0648    4.3918 O   0  0  0  0  0  0  0  0  0  0  0  0
    6.5999    0.4963    4.3949 H   0  0  0  0  0  0  0  0  0  0  0  0
 28 29  1  0  0  0
 29 30  2  0  0  0
 29 31  1  0  0  0
 31 18  1  0  0  0
 31 32  1  0  0  0
 18 19  1  0  0  0
 18 24  1  0  0  0
 19 20  1  0  0  0
 19 21  1  0  0  0
 20 26  1  0  0  0
 21 22  1  0  0  0
 22 33  1  0  0  0
 22 23  1  0  0  0
 33 34  1  0  0  0
 34 35  1  0  0  0
 23 17  1  0  0  0
 23 24  1  0  0  0
 17  1  1  0  0  0
  1  2  1  0  0  0
  1  7  1  0  0  0
  2  3  1  0  0  0
  3 14  1  0  0  0
  3  4  1  0  0  0
 14 15  1  0  0  0
 15 16  1  0  0  0
  4 36  1  0  0  0
  4  5  1  0  0  0
 36 37  1  0  0  0
 37 38  1  0  0  0
 37 44  1  0  0  0
 38 39  1  0  0  0
 39 52  1  0  0  0
 39 40  1  0  0  0
 52 53  1  0  0  0
 53 54  1  0  0  0
 40 41  1  0  0  0
 40 42  1  0  0  0
 41 45  1  0  0  0
 42 43  1  0  0  0
 42 44  1  0  0  0
 43 46  1  0  0  0
 44 47  1  0  0  0
 47 48  1  0  0  0
 47 51  1  0  0  0
 48 49  1  0  0  0
 48 50  2  0  0  0
  5  6  1  0  0  0
  5  7  1  0  0  0
  6  8  1  0  0  0
  7  9  1  0  0  0
  9 10  1  0  0  0
  9 13  1  0  0  0
 10 11  1  0  0  0
 10 12  2  0  0  0
 24 25  1  0  0  0
 25 27  1  0  0  0
M  END
> <minimizedAffinity>
-6.04158

> <CNNscore>
0.2407997847

> <CNNaffinity>
3.7690975666

> <CNN_VS>
0.9075978994

> <CNNaffinity_variance>
0.5542303324

$$$$



 54 56  0  0  0  0  0  0  0  0999 V2000
    7.6935   -2.0937    7.9836 C   0  0  0  0  0  0  0  0  0  0  0  0
    8.2526   -2.6171    6.7900 O   0  0  0  0  0  0  0  0  0  0  0  0
    9.6166   -3.0318    6.8893 C   0  0  0  0  0  0  0  0  0  0  0  0
   10.2366   -2.9645    8.3211 C   0  0  0  0  0  0  0  0  0  0  0  0
    9.9995   -1.5570    8.9204 C   0  0  0  0  0  0  0  0  0  0  0  0
   11.0260   -0.6831    8.5171 O   0  0  0  0  0  0  0  0  0  0  0  0
    8.5991   -0.9871    8.5543 C   0  0  0  0  0  0  0  0  0  0  0  0
   11.0128    0.0856    9.1461 H   0  0  0  0  0  0  0  0  0  0  0  0
    8.7085    0.1127    7.5856 N   0  0  0  0  0  0  0  0  0  0  0  0
    8.1838    1.4257    7.8260 C   0  0  0  0  0  0  0  0  0  0  0  0
    8.5006    2.5342    6.8759 C   0  0  0  0  0  0  0  0  0  0  0  0
    7.4588    1.6571    8.8329 O   0  0  0  0  0  0  0  0  0  0  0  0
    9.2199   -0.0566    6.6893 H   0  0  0  0  0  0  0  0  0  0  0  0
    9.7183   -4.4391    6.2757 C   0  0  0  0  0  0  0  0  0  0  0  0
   10.9344   -4.6171    5.6015 O   0  0  0  0  0  0  0  0  0  0  0  0
   10.8671   -4.1068    4.7518 H   0  0  0  0  0  0  0  0  0  0  0  0
    6.4247   -1.5328    7.6871 O   0  0  0  0  0  0  0  0  0  0  0  0
    3.1662   -3.4889    6.7691 C   0  0  0  0  0  0  0  0  0  0  0  0
    3.8127   -3.8567    5.4127 C   0  0  0  0  0  0  0  0  0  0  0  0
    2.8552   -4.4309    4.5613 O   0  0  0  0  0  0  0  0  0  0  0  0
    4.3403   -2.6871    4.8159 O   0  0  0  0  0  0  0  0  0  0  0  0
    5.5403   -2.2659    5.4572 C   0  0  0  0  0  0  0  0  0  0  0  0
    5.4944   -2.3942    7.0235 C   0  0  0  0  0  0  0  0  0  0  0  0
    4.0287   -2.4640    7.5691 C   0  0  0  0  0  0  0  0  0  0  0  0
    3.9713   -2.7166    8.9536 O   0  0  0  0  0  0  0  0  0  0  0  0
    2.2443   -3.7060    4.2703 H   0  0  0  0  0  0  0  0  0  0  0  0
    4.6568   -3.3970    9.1782 H   0  0  0  0  0  0  0  0  0  0  0  0
    1.2459   -6.5139    8.4039 C   0  0  0  0  0  0  0  0  0  0  0  0
    1.5413   -5.3878    7.4636 C   0  0  0  0  0  0  0  0  0  0  0  0
    0.6816   -5.0782    6.6009 O   0  0  0  0  0  0  0  0  0  0  0  0
    2.7988   -4.6895    7.5405 N   0  0  0  0  0  0  0  0  0  0  0  0
    3.4992   -5.0281    8.2388 H   0  0  0  0  0  0  0  0  0  0  0  0
    5.8803   -0.8585    4.9377 C   0  0  0  0  0  0  0  0  0  0  0  0
    7.2665   -0.6583    4.8593 O   0  0  0  0  0  0  0  0  0  0  0  0
    7.5834   -0.4603    5.7777 H   0  0  0  0  0  0  0  0  0  0  0  0
   11.6362   -3.2096    8.2633 O   0  0  0  0  0  0  0  0  0  0  0  0
   12.1186   -4.2530    9.1070 C   0  0  0  0  0  0  0  0  0  0  0  0
   11.1313   -4.7860    9.9777 O   0  0  0  0  0  0  0  0  0  0  0  0
   11.5657   -6.0238   10.5199 C   0  0  0  0  0  0  0  0  0  0  0  0
   12.8178   -5.8368   11.4252 C   0  0  0  0  0  0  0  0  0  0  0  0
   13.3069   -7.0818   11.8614 O   0  0  0  0  0  0  0  0  0  0  0  0
   13.9362   -5.0431   10.7007 C   0  0  0  0  0  0  0  0  0  0  0  0
   14.8915   -4.5935   11.6280 O   0  0  0  0  0  0  0  0  0  0  0  0
   13.3972   -3.8490    9.8754 C   0  0  0  0  0  0  0  0  0  0  0  0
   13.5597   -7.6068   11.0585 H   0  0  0  0  0  0  0  0  0  0  0  0
   15.4529   -5.3758   11.8678 H   0  0  0  0  0  0  0  0  0  0  0  0
   13.2705   -2.6082   10.6625 N   0  0  0  0  0  0  0  0  0  0  0  0
   14.2406   -1.5527   10.8057 C   0  0  0  0  0  0  0  0  0  0  0  0
   13.8299   -0.2516   11.4197 C   0  0  0  0  0  0  0  0  0  0  0  0
   15.4465   -1.7258   10.4958 O   0  0  0  0  0  0  0  0  0  0  0  0
   12.3371   -2.4381   11.1009 H   0  0  0  0  0  0  0  0  0  0  0  0
   10.4006   -6.6552   11.2949 C   0  0  0  0  0  0  0  0  0  0  0  0
   10.5523   -6.4809   12.6774 O   0  0  0  0  0  0  0  0  0  0  0  0
   10.2468   -5.5574   12.8815 H   0  0  0  0  0  0  0  0  0  0  0  0
 28 29  1  0  0  0
 29 30  2  0  0  0
 29 31  1  0  0  0
 31 18  1  0  0  0
 31 32  1  0  0  0
 18 19  1  0  0  0
 18 24  1  0  0  0
 19 20  1  0  0  0
 19 21  1  0  0  0
 20 26  1  0  0  0
 21 22  1  0  0  0
 22 33  1  0  0  0
 22 23  1  0  0  0
 33 34  1  0  0  0
 34 35  1  0  0  0
 23 17  1  0  0  0
 23 24  1  0  0  0
 17  1  1  0  0  0
  1  2  1  0  0  0
  1  7  1  0  0  0
  2  3  1  0  0  0
  3 14  1  0  0  0
  3  4  1  0  0  0
 14 15  1  0  0  0
 15 16  1  0  0  0
  4 36  1  0  0  0
  4  5  1  0  0  0
 36 37  1  0  0  0
 37 38  1  0  0  0
 37 44  1  0  0  0
 38 39  1  0  0  0
 39 52  1  0  0  0
 39 40  1  0  0  0
 52 53  1  0  0  0
 53 54  1  0  0  0
 40 41  1  0  0  0
 40 42  1  0  0  0
 41 45  1  0  0  0
 42 43  1  0  0  0
 42 44  1  0  0  0
 43 46  1  0  0  0
 44 47  1  0  0  0
 47 48  1  0  0  0
 47 51  1  0  0  0
 48 49  1  0  0  0
 48 50  2  0  0  0
  5  6  1  0  0  0
  5  7  1  0  0  0
  6  8  1  0  0  0
  7  9  1  0  0  0
  9 10  1  0  0  0
  9 13  1  0  0  0
 10 11  1  0  0  0
 10 12  2  0  0  0
 24 25  1  0  0  0
 25 27  1  0  0  0
M  END
> <minimizedAffinity>
-6.62726

> <CNNscore>
0.2370600402

> <CNNaffinity>
3.7451293468

> <CNN_VS>
0.8878205419

> <CNNaffinity_variance>
0.4815863073

$$$$
